DATABASE ../database/phreeqc.dat
SELECTED_OUTPUT 101
    -file                 empty_conc_101.sel
USER_PUNCH 101
    -headings Mu SC
    -start
10 PUNCH STR_F$(MU, 20, 12)
20 PUNCH STR_F$(SC, 20, 10)
    -end
SOLUTION 1  
		units   #mmol/l
		potential
		pH      
		pe      5.00
		pe      
		density 
		temp    
		Na      1
		Ca      
		Cl      1 charge
		water
END
SOLUTION_SPREAD
 pH	 pe	 Temperature	 Water	 Na	 Ca	 Cl	 Density	 Description
   	   	            	      	   	   	  1	        	            

